/*--------------------------------*- C++ -*----------------------------------*\
| =========                 |                                                 |
| \\      /  F ield         | OpenFOAM: The Open Source CFD Toolbox           |
|  \\    /   O peration     | Version:  2.3.1                                 |
|   \\  /    A nd           | Web:      www.OpenFOAM.org                      |
|    \\/     M anipulation  |                                                 |
\*---------------------------------------------------------------------------*/
FoamFile
{
    version     2.0;
    format      ascii;
    class       vectorField;
    location    "constant";
    object      particlesPositions;
}
// * * * * * * * * * * * * * * * * * * * * * * * * * * * * * * * * * * * * * //
(
(0.00134349761784 -0.000520794321201 0.00216285606502)
(-0.00314006091919 -0.00114652083755 0.00531782136131)
(-0.00220298276382 -0.00343463087153 0.00593888949356)
(-0.00213868015309 0.00314685206475 0.00324657424552)
(-0.000891147531355 0.0049318907214 0.00308491236518)
(0.00260184048502 0.0029172805158 0.00687128937178)
(0.00286937054456 -0.00200949959533 0.0016980408869)
(-0.00199146985378 0.00625604487769 0.00683842713014)
(0.00387470222107 -0.00234126464199 0.0074386980486)
(0.00207813935458 0.00218744686314 0.00741822642403)
(0.00198021344483 -0.00122326533846 0.00198015014661)
(0.00129364093579 -0.000385420049494 0.0026978338391)
(-0.00432002509065 -0.00283513680117 0.00789107144652)
(0.00411580345332 -0.000399018024492 0.007510749345)
(-0.00170950673309 0.00132033546487 0.0065782690718)
(-0.00395695949642 -0.00598243669524 0.0085289423423)
(-0.00287884889716 -0.00126491993719 0.00394056751744)
(0.00385422456004 -0.00250617105689 0.00392623285293)
(-0.00122665548232 -0.00206321490089 0.00711619299401)
(-0.00264463937656 -0.00378110893158 0.00729917648388)
(-0.00230716131263 -0.00427322543549 0.00239613785881)
(0.000709807229503 -0.00150555819809 0.00401390318476)
(-0.000482401648835 0.00457726849802 0.0070946712202)
(0.00531230461491 0.00415790694592 0.00471523153165)
(-0.000789977013959 -0.00148165485596 0.00429620564317)
(0.00223817284953 0.00562944615882 0.00469953416475)
(-0.00370414203602 -0.000843863357175 0.00855565457605)
(-0.000825018569384 0.000102879928769 0.00800356954996)
(0.00273020275387 -0.00194224517662 0.00963509025492)
(-0.00405602329496 -0.00353225427679 0.00249747345395)
(0.00136478336507 0.0018293562097 0.000498874482704)
(-0.00151730805984 -0.00122116179112 0.000622601694056)
(-5.28558682527e-05 -0.00181840673387 0.00468840943085)
(-0.000759934637512 -0.00424765339485 0.00528365221561)
(-0.00250204008582 -0.00122489933904 0.0061339349254)
(-0.00265873575372 -0.000778256102145 0.00431104515644)
(-0.00406768699365 -0.00105179030119 0.00594552729938)
(-0.00156586795182 -0.00293412645342 0.00720306434022)
(-0.000926252846453 -0.00121441740984 0.000939257967253)
(-0.00109540784794 -0.00473956582577 0.0025803902744)
(-0.00305590200274 -0.000339184048806 0.00219389301987)
(0.00479791423566 0.00253877540209 0.00507384256733)
(-0.00324892396907 0.00344454295532 0.00865577011095)
(0.00489747266708 -0.000111804950241 0.00878057375596)
(-0.00242398569583 0.00432321021812 0.00176573185256)
(0.00238438884201 0.00206882573926 0.00561225721434)
(0.00518524249113 -0.00175439278655 0.00538296366211)
(0.000525639383749 0.000232349568195 0.00246048475978)
(-0.00160298582024 -0.00587202126074 0.00952588974605)
(-0.00081082910752 -0.00400237893744 0.00687400730864)
(0.00440715418337 -0.00181662797611 0.00222394154841)
(-0.00124966497653 -0.00269199587367 0.0063312077204)
(0.00171585808739 -0.00399686165656 0.0043780939817)
(-0.000767469930687 -0.000430607126124 0.00550542551985)
(0.000504920099232 0.000307959039182 0.00914630119619)
(0.00251765447561 -0.00193881128185 0.00664432487866)
(0.000175914797035 0.00143627385879 0.00353235576902)
(0.000279472393143 -0.00339550105558 0.00167161738031)
(-0.0045182642181 -0.00162258876409 0.00619181953169)
(-0.00280315521077 0.00316475528252 0.000379488889324)
(0.00204917583782 -0.0025490590709 0.00195200659423)
(-0.00130095902792 -0.00341093955998 0.00465050237413)
(-0.00323741213935 -0.00364428749518 0.00276542685605)
(-2.09181069073e-06 0.00242373700297 0.00328367385099)
(0.00181347895774 -0.00157639383315 0.00787576875195)
(0.00303905422383 -0.00116672369204 0.00632733190773)
(0.000402678053415 -0.00364866986662 0.00486933809111)
(0.000460772890592 0.00247180034031 0.00948152165567)
(0.00247829324703 -0.00511371598339 0.00098436769416)
(-0.00200220901423 0.00217612428434 0.00666504328042)
(-0.00410394785383 0.00528574594087 0.00962513316521)
(0.0015263378303 -0.00312883245021 0.00745533434347)
(-0.00363720128029 0.000849055491655 0.0041402139337)
(-0.00113113597755 -0.00161873677057 0.00628243302219)
(-0.00121634834083 0.00458225920823 0.00275034840552)
(-0.00210847757854 0.00173759894087 0.00581353134076)
(-0.000188392171898 -0.00110641627379 0.00915476150342)
(-0.00571112528604 0.00243790425932 0.00410463259604)
(0.00383812397481 -0.0027588229031 0.000597796078162)
(-0.000417616725663 0.00146283694786 0.000820394098218)
(0.000645225581554 -0.00212867357811 0.00341768586945)
(-0.00294663675335 0.0044669515005 0.00255519383165)
(0.000178737362832 0.000366615718296 0.000819765550115)
(0.000730534619485 -0.00261171185502 0.002789364159)
(-0.00108213093811 0.000749504859745 0.00926551706298)
(-0.00139295314079 -0.00350341385632 0.00631707499913)
(-0.000288125421922 0.00521275899754 0.000740919553126)
(4.08563015297e-05 0.00209275225804 0.00521708418651)
(-0.00370055107929 0.00376254681019 0.00766140545957)
(-0.00166398730316 0.00295715700425 0.00769210530928)
(0.00221041076441 0.00232088907644 0.00634650410215)
(-0.00560988674482 0.00247807888464 0.00853062224701)
(-0.000734756949963 0.00613434191404 0.00440923810869)
(0.000154060040765 -0.00394220095959 0.00437196240627)
(0.000375434589598 0.000476488026886 0.00629490653828)
(0.00196998058383 -0.0045051454089 0.00820892976649)
(0.00169210448189 0.00168011570532 0.000582553338764)
(-0.000610712631097 0.000505892614666 0.00762080130833)
(0.00263519621765 0.00188556074397 0.00392735125007)
(0.00322917663965 -0.00111733666975 0.00459633411935)
)
