/*--------------------------------*- C++ -*----------------------------------*\
| =========                 |                                                 |
| \\      /  F ield         | OpenFOAM: The Open Source CFD Toolbox           |
|  \\    /   O peration     | Version:  2.4.0                                 |
|   \\  /    A nd           | Web:      www.OpenFOAM.org                      |
|    \\/     M anipulation  |                                                 |
\*---------------------------------------------------------------------------*/
FoamFile
{
    version     2.0;
    format      ascii;
    class       dictionary;
    location    "system";
    object      decomposeParDict;
}
// * * * * * * * * * * * * * * * * * * * * * * * * * * * * * * * * * * * * * //

numberOfSubdomains 1;

method          scotch;

simpleCoeffs //only used when method = simple
{
    n               ( 1 2 4 );
    delta           0.001;
}

hierarchicalCoeffs //only used when method = hierarchical
{
    n               ( 1 1 1 );
    delta           0.001;
    order           xyz;
}

manualCoeffs //only used when method = manual
{
    dataFile        "";
}

//scotch has optional scotchCoeffs, but not necessary!

distributed     no;

roots           ( );


// ************************************************************************* //
