/*--------------------------------*- C++ -*----------------------------------*\
| =========                 |                                                 |
| \\      /  F ield         | OpenFOAM: The Open Source CFD Toolbox           |
|  \\    /   O peration     | Version:  2.3.1                                 |
|   \\  /    A nd           | Web:      www.OpenFOAM.org                      |
|    \\/     M anipulation  |                                                 |
\*---------------------------------------------------------------------------*/
FoamFile
{
    version     2.0;
    format      ascii;
    class       vectorField;
    location    "constant";
    object      particlesPositions;
}
// * * * * * * * * * * * * * * * * * * * * * * * * * * * * * * * * * * * * * //
(
(-0.0029644507042 0.00148501485837 0.00392973939104)
(0.00294143457401 0.00396757911172 0.00394128595498)
(-0.0030435421562 -0.00314656511662 0.00965692371319)
(0.000323844194032 0.00213457908101 0.000251505073278)
(0.00130914991697 0.000384621026375 0.00495542865074)
(0.00424113700088 -0.0026038799648 0.000663614034363)
(0.00290880095279 -0.00292259339135 0.00486989829812)
(0.0030382003867 -0.0015740763881 0.00146134972835)
(-0.00403645477636 0.00307732363138 0.00561524796947)
(-0.0013860502009 -0.00211879556609 0.00507847339933)
(0.0029411287338 0.00406052441274 0.00105823583803)
(0.00412140860684 0.00438921426896 0.00411833182015)
(-0.000658199154256 -0.00494120323874 0.00410059260463)
(0.00444405294079 -0.00295659675073 0.00628152654723)
(-0.000920273767496 -0.00121491266743 0.0068398093958)
(-0.0060606805866 -6.43557149623e-05 0.00526629953252)
(0.00174470651264 0.000853681737155 0.00263120651268)
(5.00282976112e-05 0.000682025231265 0.00578158019833)
(0.0012660236672 -0.00497587646637 0.00256296644922)
(0.000938890051705 0.00497786403042 0.000978717259959)
(-0.00449655053229 -0.00293099636544 0.00188621362165)
(0.000699234799478 0.00188812613056 0.000326864984559)
(0.00240446417151 -0.00223027267899 0.00894969615818)
(0.00169992558717 0.000196803278076 0.00909451583888)
(-0.00442024784695 0.000102591903552 0.00538767787944)
(0.00469213929004 -0.00161966523165 0.00410230543632)
(-0.00255201592458 -0.00382584666618 0.00219681473914)
(0.00238546648805 0.00279966744587 0.00141067579693)
(-0.00110773949712 0.00466916202973 0.000659840894231)
(-0.00367410652489 -0.00222998823627 0.00748417568694)
(-0.00221668627446 -0.000414834447897 0.00112536242218)
(0.00293315752842 0.0032880131103 0.00477955583194)
(-0.000995324888844 -0.00139157989551 0.00770432361286)
(0.000250556682625 -0.000721642693297 0.00495530156881)
(0.00232535063217 -0.00457135866901 0.000132347639624)
(-0.00201066861423 0.00340650578757 0.00758521981537)
(-0.00367700366732 0.00162746146448 0.00194329710514)
(-0.00134986970719 0.00330135710903 0.00924251494432)
(0.0019638154141 0.00150648971881 0.00481277642273)
(-0.00191425897718 -0.00389035251875 0.00620569410496)
(0.00393547092954 -0.0056241008669 0.00165284446528)
(-0.00681928318195 -0.000683122162211 0.00977712686)
(-0.00357855768652 0.00541403106336 0.00108432331799)
(0.00111383871539 0.00403391619393 0.00975783151544)
(-0.000114945103449 0.0061474761136 0.00499241748869)
(0.00022333534208 -0.00133375351869 0.00174199879393)
(0.00299453292302 -0.000998296741704 0.00334974760867)
(-0.00168051270963 -0.00235401184603 0.0023589318123)
(0.00136985123988 -0.00100961893786 0.00514144576583)
(0.000514806445088 0.00283481507747 0.00510376030181)
(0.000316101881919 0.00141473191654 0.00892530045395)
(0.00109761236746 -0.00573364937841 0.00270490352079)
(-0.00294487378849 -0.0018575878476 0.00291921506324)
(-0.00274988210291 -0.00500998094343 0.00786525242974)
(0.00133506876848 -0.00182656338952 0.00632086079489)
(0.00162642495982 -0.00445533052887 0.00219317335777)
(0.0050498394277 0.000603233683628 0.00868150356973)
(-0.00390384336824 0.000318894017102 0.00397647869277)
(-0.00114645198926 -0.00233658727075 0.00825057846311)
(0.00274455271853 0.00435658028732 0.00981349582117)
(-0.000513509104819 0.00717323064288 0.00542698240044)
(-0.00169127653103 0.00305591681777 0.000150295053111)
(0.00459819002904 0.00225651867049 0.00212452784979)
(-0.00392573145205 -0.00251063893674 0.0098589466843)
(0.000933283501091 0.00308780423234 0.00163326033643)
(-0.00302335055081 -1.56815947186e-05 0.00416710075642)
(-0.000744044431207 -0.000605745163735 0.00146399271018)
(-0.00269560908149 -0.00492835100364 0.00471986493547)
(0.00429545894803 0.00236529806135 0.0057474881386)
(-0.00199916475653 0.00421091724623 0.004691950963)
(-0.00484856753307 0.000972097142478 0.0076273970108)
(-0.00313632472635 0.00012083623984 0.00394861216852)
(-0.00412783802858 -0.00383903985572 0.00288291468046)
(-0.00215979333556 -0.000886743901143 0.00199695569176)
(0.00365175520672 -0.00106158842149 0.00365411656599)
(0.00078036318362 -0.00585851939889 0.00977442167258)
(-0.000740470628538 -0.00463789181874 0.00970752271511)
(0.00592946076497 -0.0028681715575 0.00863898142557)
(-0.00155376704034 -0.00379027791357 0.00971961752268)
(-0.00389138940196 0.000801229516325 0.00369249127118)
(-0.00414379105749 -0.00244039291769 0.00995019817346)
(-0.0014137563021 0.00545629685551 0.00892154817071)
(0.000930174764446 0.00326704828937 0.00903224856683)
(0.00263094366931 -0.00367370826602 0.00163255617809)
(-0.00100175770462 -0.00342983933575 0.00919921476657)
(-0.00439233172552 -0.00103118091581 0.00548959266407)
(-0.00264018523682 0.000312825022698 0.00889812800995)
(0.00250219547842 -0.00317587767654 0.00760759764298)
(-0.00104088634866 0.000954192601088 0.0016665225188)
(0.00409720099281 0.000964604756042 0.00542819222204)
(0.00429081931026 0.00344306982512 0.00547930517995)
(0.000568551580066 0.00215936489286 0.00199285819834)
(0.000696229597695 0.00267847796695 0.00867810317031)
(-0.0009726286153 0.00150363133651 0.00431579432431)
(-0.00372145628264 0.000137534945895 0.00953921355621)
(0.00364566738489 0.00128649554655 0.00889561205055)
(0.00181707286668 -0.000493930404719 0.000359061095478)
(0.000447508731521 -0.00127178533122 0.00109062833036)
(0.00191313766034 -0.00205703869726 0.00308160967807)
(0.000188533634827 0.00141075160247 0.00565947428199)
)
